    6
 B3LYP/cc-pVTZ//B3LYP/cc-pVTZ Energy:   -115.705962851410
 H         -1.0099854471        0.0000000000       -1.1001793074
 C          0.0133516303        0.0000000000       -0.7277084364
 O         -0.0640017748        0.0000000000        0.6906688988
 H          0.8292344160        0.0000000000        1.0448347741
 H          0.5187857202        0.8901048484       -1.1181211084
 H          0.5187857202       -0.8901048484       -1.1181211084
