    4
 B3LYP/cc-pVTZ//B3LYP/cc-pVTZ Energy:   -114.490151248331
 C          0.0000000000        0.0000000000       -0.5994846272
 O          0.0000000000        0.0000000000        0.5997811292
 H          0.0000000000        0.9375210382       -1.1884280518
 H          0.0000000000       -0.9375210382       -1.1884280518
